12
	Energy:      10.5447318
H          1.26929       -2.13173       -0.04330
C          0.71565       -1.20190       -0.02441
C         -0.68327       -1.22056       -0.02661
H         -1.21186       -2.16481       -0.04719
C         -1.39892       -0.01865       -0.00219
H         -2.48116       -0.03308       -0.00389
C         -0.71565        1.20190        0.02441
H         -1.26929        2.13173        0.04330
C          0.68327        1.22056        0.02661
H          1.21186        2.16481        0.04719
C          1.39892        0.01865        0.00219
H          2.48116        0.03308        0.00389
